12

  C      -11.04167        5.33170        0.00000
  C      -12.66700        4.81168        0.00000
  C      -13.62534        3.18832        0.00000
  C      -12.20833        1.95997        0.00000
  C      -10.45800        2.60498        0.00000
  C       -9.83300        4.47835        0.00000
  H      -11.66667        6.58003        0.00000
  H      -14.33402        5.04001        0.00000
  H      -14.33402        1.95999        0.00000
  H      -11.66667        0.41997        0.00000
  H       -8.99931        1.95999        0.00000
  H       -8.99931        5.04001        0.00000
